<NUMBER OF ZONES> 135.0
<TOTAL OD FLOW> 64775.0
<END OF METADATA>


Origin  1
   58 :    14.0;
Origin  2
   136 :    4.0;   1 :    38.0;   3 :    39.0;   4 :    38.0;   5 :    5.0;   6 :    124.0;   23 :    83.0;   25 :    38.0;   29 :    38.0;   41 :    36.0;   46 :    5.0;   54 :    40.0;   57 :    41.0;   58 :    18.0;   59 :    40.0;   66 :    37.0;   71 :    5.0;   80 :    36.0;   83 :    79.0;   137 :    37.0;   87 :    37.0;   95 :    170.0;   96 :    39.0;   99 :    5.0;   100 :    210.0;   101 :    2.0;   139 :    38.0;   102 :    38.0;   107 :    44.0;   108 :    95.0;   110 :    94.0;   128 :    37.0;   134 :    38.0;   135 :    39.0;
Origin  3
   5 :    38.0;   23 :    37.0;   29 :    10.0;   51 :    40.0;   79 :    37.0;   137 :    37.0;   92 :    37.0;   96 :    39.0;   97 :    40.0;   100 :    39.0;   139 :    39.0;   110 :    95.0;   134 :    38.0;   135 :    84.0;
Origin  4
   2 :    6.0;   3 :    85.0;   7 :    46.0;   11 :    53.0;   24 :    43.0;   54 :    47.0;   58 :    14.0;   71 :    6.0;   73 :    45.0;   137 :    43.0;   84 :    42.0;   94 :    45.0;   97 :    46.0;   101 :    13.0;   102 :    85.0;   109 :    51.0;
Origin  5
   6 :    38.0;   80 :    37.0;   101 :    39.0;   121 :    36.0;
Origin  6
   136 :    45.0;   2 :    45.0;   29 :    45.0;   37 :    44.0;   49 :    6.0;   91 :    42.0;   93 :    90.0;   94 :    46.0;   95 :    11.0;   96 :    46.0;   97 :    46.0;   101 :    13.0;   139 :    45.0;   102 :    45.0;   103 :    6.0;   105 :    6.0;   110 :    51.0;   141 :    46.0;   134 :    44.0;
Origin  7
   136 :    46.0;   6 :    6.0;   29 :    44.0;   48 :    46.0;   57 :    94.0;   58 :    24.0;   97 :    46.0;   101 :    12.0;   135 :    46.0;
Origin  8
   2 :    39.0;   95 :    38.0;   97 :    40.0;   102 :    5.0;
Origin  9
   136 :    6.0;   1 :    7.0;   8 :    9.0;   25 :    27.0;   29 :    9.0;   58 :    3.0;   59 :    8.0;   95 :    7.0;   97 :    9.0;   98 :    8.0;   99 :    9.0;   101 :    8.0;   110 :    20.0;
Origin  10
   136 :    4.0;   1 :    6.0;   2 :    13.0;   3 :    12.0;   4 :    10.0;   5 :    14.0;   6 :    12.0;   7 :    18.0;   8 :    50.0;   9 :    23.0;   11 :    51.0;   12 :    9.0;   13 :    8.0;   14 :    9.0;   16 :    7.0;   17 :    8.0;   18 :    17.0;   22 :    6.0;   23 :    13.0;   24 :    37.0;   25 :    31.0;   26 :    19.0;   28 :    6.0;   29 :    32.0;   30 :    25.0;   34 :    7.0;   37 :    6.0;   38 :    5.0;   44 :    6.0;   46 :    17.0;   48 :    11.0;   53 :    12.0;   54 :    6.0;   57 :    11.0;   58 :    32.0;   61 :    4.0;   64 :    7.0;   66 :    6.0;   75 :    6.0;   76 :    7.0;   81 :    5.0;   83 :    38.0;   84 :    6.0;   88 :    6.0;   92 :    7.0;   93 :    11.0;   94 :    11.0;   95 :    13.0;   96 :    17.0;   97 :    24.0;   98 :    12.0;   99 :    18.0;   100 :    61.0;   101 :    27.0;   139 :    7.0;   103 :    14.0;   105 :    7.0;   109 :    13.0;   110 :    49.0;   112 :    7.0;   113 :    14.0;   116 :    14.0;   124 :    7.0;   129 :    13.0;   135 :    45.0;
Origin  11
   136 :    6.0;   1 :    19.0;   2 :    6.0;   3 :    5.0;   4 :    12.0;   5 :    7.0;   6 :    12.0;   7 :    8.0;   8 :    13.0;   10 :    25.0;   13 :    9.0;   15 :    8.0;   17 :    7.0;   18 :    9.0;   24 :    6.0;   26 :    17.0;   28 :    7.0;   29 :    5.0;   30 :    12.0;   34 :    13.0;   47 :    5.0;   54 :    6.0;   57 :    6.0;   58 :    9.0;   66 :    6.0;   68 :    6.0;   71 :    5.0;   79 :    5.0;   80 :    12.0;   81 :    6.0;   82 :    6.0;   83 :    5.0;   85 :    7.0;   86 :    13.0;   89 :    7.0;   94 :    6.0;   95 :    17.0;   96 :    5.0;   97 :    6.0;   99 :    12.0;   100 :    30.0;   101 :    31.0;   139 :    5.0;   104 :    7.0;   108 :    14.0;   110 :    7.0;   116 :    7.0;   128 :    5.0;   130 :    13.0;   135 :    12.0;
Origin  12
   136 :    27.0;   1 :    34.0;   2 :    33.0;   3 :    13.0;   4 :    6.0;   5 :    5.0;   6 :    6.0;   7 :    3.0;   8 :    6.0;   9 :    8.0;   10 :    17.0;   11 :    16.0;   16 :    5.0;   17 :    9.0;   21 :    7.0;   29 :    5.0;   30 :    28.0;   43 :    6.0;   47 :    5.0;   54 :    6.0;   57 :    6.0;   58 :    21.0;   80 :    6.0;   137 :    7.0;   95 :    20.0;   97 :    13.0;   98 :    6.0;   99 :    6.0;   100 :    13.0;   101 :    2.0;   108 :    6.0;   112 :    7.0;   113 :    15.0;   132 :    7.0;   135 :    13.0;
Origin  13
   136 :    12.0;   1 :    32.0;   2 :    13.0;   3 :    7.0;   4 :    12.0;   5 :    25.0;   6 :    19.0;   7 :    25.0;   8 :    38.0;   9 :    11.0;   10 :    9.0;   11 :    17.0;   14 :    9.0;   15 :    8.0;   17 :    8.0;   18 :    9.0;   22 :    6.0;   23 :    6.0;   24 :    5.0;   25 :    13.0;   26 :    32.0;   28 :    7.0;   29 :    5.0;   30 :    33.0;   34 :    6.0;   37 :    7.0;   49 :    5.0;   51 :    19.0;   54 :    5.0;   57 :    6.0;   58 :    38.0;   62 :    5.0;   69 :    7.0;   80 :    19.0;   83 :    7.0;   137 :    5.0;   84 :    27.0;   85 :    13.0;   93 :    4.0;   94 :    13.0;   95 :    18.0;   96 :    5.0;   97 :    19.0;   99 :    11.0;   100 :    37.0;   101 :    25.0;   103 :    6.0;   104 :    7.0;   105 :    6.0;   110 :    6.0;   113 :    7.0;   146 :    7.0;   134 :    26.0;   135 :    19.0;
Origin  14
   1 :    19.0;   2 :    23.0;   3 :    7.0;   4 :    5.0;   6 :    11.0;   7 :    9.0;   9 :    8.0;   12 :    9.0;   13 :    9.0;   15 :    7.0;   17 :    9.0;   18 :    8.0;   21 :    5.0;   23 :    6.0;   24 :    5.0;   29 :    6.0;   30 :    19.0;   37 :    6.0;   47 :    5.0;   48 :    11.0;   51 :    11.0;   53 :    7.0;   54 :    6.0;   57 :    6.0;   58 :    19.0;   80 :    6.0;   81 :    7.0;   137 :    6.0;   84 :    6.0;   96 :    6.0;   98 :    11.0;   99 :    11.0;   100 :    18.0;   101 :    15.0;   139 :    5.0;   103 :    7.0;   104 :    7.0;   105 :    6.0;   107 :    7.0;   110 :    7.0;   111 :    7.0;   113 :    7.0;   126 :    7.0;   135 :    12.0;
Origin  15
   136 :    37.0;   1 :    26.0;   2 :    11.0;   3 :    16.0;   4 :    9.0;   5 :    27.0;   6 :    10.0;   7 :    16.0;   8 :    27.0;   9 :    29.0;   10 :    29.0;   11 :    36.0;   13 :    29.0;   16 :    22.0;   17 :    29.0;   18 :    7.0;   20 :    14.0;   21 :    4.0;   22 :    5.0;   23 :    4.0;   24 :    17.0;   25 :    32.0;   26 :    55.0;   27 :    11.0;   28 :    16.0;   29 :    38.0;   30 :    6.0;   31 :    5.0;   32 :    11.0;   34 :    17.0;   42 :    11.0;   43 :    4.0;   46 :    9.0;   51 :    5.0;   53 :    10.0;   54 :    5.0;   57 :    15.0;   58 :    32.0;   60 :    5.0;   69 :    10.0;   71 :    5.0;   73 :    5.0;   76 :    5.0;   79 :    16.0;   80 :    10.0;   82 :    6.0;   83 :    4.0;   137 :    27.0;   84 :    4.0;   85 :    6.0;   88 :    5.0;   89 :    10.0;   90 :    5.0;   91 :    5.0;   93 :    13.0;   94 :    16.0;   95 :    21.0;   96 :    16.0;   97 :    15.0;   98 :    21.0;   99 :    25.0;   100 :    37.0;   101 :    35.0;   139 :    11.0;   102 :    5.0;   103 :    24.0;   108 :    30.0;   110 :    59.0;   112 :    6.0;   113 :    6.0;   120 :    6.0;   124 :    5.0;   130 :    6.0;   131 :    5.0;   134 :    6.0;   135 :    32.0;
Origin  16
   136 :    5.0;   1 :    43.0;   2 :    7.0;   3 :    12.0;   4 :    5.0;   5 :    18.0;   6 :    17.0;   7 :    13.0;   8 :    12.0;   9 :    24.0;   10 :    65.0;   11 :    49.0;   13 :    8.0;   15 :    16.0;   17 :    16.0;   18 :    138.0;   19 :    5.0;   20 :    9.0;   22 :    5.0;   23 :    5.0;   24 :    37.0;   25 :    11.0;   26 :    44.0;   28 :    12.0;   29 :    30.0;   30 :    6.0;   31 :    6.0;   32 :    7.0;   34 :    19.0;   42 :    6.0;   46 :    5.0;   48 :    6.0;   51 :    6.0;   53 :    6.0;   54 :    6.0;   57 :    6.0;   58 :    48.0;   59 :    12.0;   63 :    6.0;   73 :    6.0;   75 :    7.0;   76 :    6.0;   79 :    5.0;   83 :    19.0;   137 :    19.0;   85 :    5.0;   86 :    7.0;   89 :    6.0;   93 :    10.0;   94 :    11.0;   95 :    17.0;   96 :    12.0;   97 :    42.0;   98 :    11.0;   99 :    18.0;   100 :    36.0;   101 :    22.0;   103 :    6.0;   104 :    21.0;   107 :    7.0;   108 :    20.0;   109 :    6.0;   110 :    28.0;   111 :    13.0;   113 :    7.0;   114 :    6.0;   116 :    7.0;   117 :    7.0;   119 :    7.0;   120 :    7.0;   122 :    12.0;   125 :    10.0;   131 :    6.0;   132 :    12.0;   135 :    37.0;
Origin  17
   136 :    48.0;   1 :    83.0;   2 :    27.0;   3 :    63.0;   4 :    20.0;   5 :    27.0;   6 :    27.0;   7 :    39.0;   8 :    35.0;   9 :    5.0;   10 :    46.0;   11 :    35.0;   13 :    54.0;   14 :    9.0;   15 :    5.0;   16 :    27.0;   18 :    82.0;   19 :    6.0;   20 :    28.0;   21 :    6.0;   22 :    6.0;   23 :    5.0;   24 :    20.0;   25 :    21.0;   26 :    54.0;   27 :    27.0;   28 :    7.0;   29 :    53.0;   30 :    7.0;   34 :    15.0;   35 :    6.0;   37 :    7.0;   44 :    14.0;   46 :    5.0;   48 :    19.0;   50 :    6.0;   51 :    20.0;   53 :    6.0;   54 :    6.0;   57 :    13.0;   58 :    35.0;   65 :    20.0;   66 :    13.0;   70 :    6.0;   71 :    12.0;   79 :    6.0;   80 :    35.0;   82 :    6.0;   83 :    47.0;   137 :    21.0;   86 :    6.0;   88 :    7.0;   92 :    14.0;   93 :    5.0;   94 :    20.0;   95 :    25.0;   96 :    20.0;   97 :    72.0;   98 :    13.0;   99 :    13.0;   100 :    6.0;   101 :    43.0;   103 :    15.0;   104 :    22.0;   106 :    15.0;   107 :    15.0;   108 :    8.0;   109 :    59.0;   110 :    45.0;   113 :    46.0;   115 :    7.0;   116 :    7.0;   122 :    6.0;   125 :    6.0;   131 :    6.0;   133 :    7.0;   134 :    41.0;   135 :    27.0;
Origin  18
   136 :    11.0;   1 :    36.0;   2 :    17.0;   3 :    12.0;   5 :    28.0;   6 :    11.0;   7 :    12.0;   8 :    12.0;   9 :    6.0;   10 :    16.0;   11 :    15.0;   16 :    7.0;   17 :    31.0;   21 :    5.0;   24 :    11.0;   25 :    17.0;   26 :    17.0;   28 :    6.0;   29 :    4.0;   30 :    6.0;   32 :    6.0;   33 :    4.0;   34 :    6.0;   35 :    5.0;   37 :    6.0;   46 :    16.0;   51 :    11.0;   52 :    5.0;   54 :    11.0;   58 :    9.0;   71 :    5.0;   79 :    5.0;   80 :    4.0;   137 :    6.0;   85 :    4.0;   88 :    6.0;   95 :    16.0;   97 :    17.0;   98 :    5.0;   100 :    28.0;   101 :    19.0;   139 :    11.0;   106 :    5.0;   109 :    13.0;   110 :    4.0;   113 :    6.0;   132 :    4.0;   134 :    6.0;   135 :    23.0;
Origin  19
   136 :    7.0;   4 :    5.0;   5 :    12.0;   8 :    6.0;   12 :    9.0;   16 :    7.0;   18 :    9.0;   20 :    17.0;   26 :    5.0;   30 :    6.0;   34 :    6.0;   37 :    6.0;   58 :    9.0;   61 :    4.0;   68 :    6.0;   137 :    6.0;   95 :    12.0;   96 :    7.0;   98 :    5.0;   100 :    6.0;   101 :    9.0;   139 :    5.0;   102 :    6.0;   103 :    6.0;   110 :    6.0;   116 :    7.0;
Origin  20
   136 :    13.0;   1 :    14.0;   2 :    14.0;   3 :    22.0;   5 :    8.0;   6 :    6.0;   7 :    12.0;   8 :    8.0;   10 :    19.0;   11 :    29.0;   12 :    10.0;   15 :    9.0;   16 :    9.0;   17 :    6.0;   18 :    38.0;   24 :    6.0;   26 :    8.0;   28 :    8.0;   29 :    13.0;   30 :    22.0;   48 :    7.0;   58 :    14.0;   80 :    21.0;   137 :    22.0;   97 :    14.0;   98 :    7.0;   99 :    8.0;   100 :    13.0;   102 :    8.0;   103 :    8.0;   110 :    15.0;   122 :    14.0;   135 :    7.0;
Origin  21
   3 :    6.0;   8 :    6.0;   23 :    12.0;   25 :    21.0;   26 :    7.0;   29 :    7.0;   57 :    5.0;   58 :    11.0;   79 :    6.0;   89 :    6.0;   94 :    6.0;   97 :    7.0;   100 :    7.0;   101 :    8.0;   127 :    5.0;   134 :    7.0;
Origin  22
   136 :    6.0;   1 :    9.0;   4 :    8.0;   9 :    13.0;   21 :    19.0;   24 :    9.0;   25 :    10.0;   27 :    10.0;   32 :    9.0;   43 :    7.0;   58 :    13.0;   79 :    8.0;   99 :    9.0;   101 :    4.0;   104 :    10.0;
Origin  23
   1 :    14.0;   3 :    14.0;   5 :    15.0;   7 :    15.0;   10 :    11.0;   21 :    8.0;   22 :    6.0;   25 :    9.0;   26 :    55.0;   32 :    7.0;   34 :    8.0;   37 :    22.0;   39 :    7.0;   41 :    8.0;   43 :    8.0;   44 :    7.0;   45 :    8.0;   46 :    14.0;   58 :    17.0;   73 :    9.0;   79 :    7.0;   80 :    7.0;   83 :    9.0;   137 :    8.0;   84 :    7.0;   89 :    6.0;   94 :    15.0;   97 :    8.0;   100 :    23.0;   101 :    4.0;   139 :    7.0;   135 :    14.0;
Origin  24
   136 :    13.0;   1 :    13.0;   2 :    6.0;   3 :    33.0;   5 :    20.0;   6 :    12.0;   7 :    9.0;   8 :    39.0;   10 :    10.0;   11 :    37.0;   13 :    10.0;   14 :    9.0;   15 :    18.0;   16 :    9.0;   17 :    9.0;   18 :    28.0;   21 :    7.0;   23 :    5.0;   25 :    51.0;   26 :    29.0;   27 :    7.0;   28 :    7.0;   29 :    51.0;   30 :    22.0;   34 :    20.0;   35 :    6.0;   41 :    19.0;   43 :    5.0;   44 :    7.0;   45 :    6.0;   46 :    5.0;   47 :    6.0;   51 :    21.0;   54 :    6.0;   57 :    21.0;   58 :    35.0;   61 :    4.0;   70 :    7.0;   71 :    7.0;   80 :    5.0;   81 :    7.0;   82 :    14.0;   137 :    14.0;   84 :    7.0;   94 :    35.0;   95 :    12.0;   96 :    13.0;   97 :    28.0;   98 :    14.0;   99 :    14.0;   100 :    28.0;   101 :    18.0;   139 :    7.0;   103 :    6.0;   104 :    7.0;   108 :    14.0;   109 :    8.0;   110 :    28.0;   141 :    7.0;   135 :    54.0;
Origin  25
   23 :    4.0;   26 :    4.0;   30 :    6.0;   32 :    6.0;   33 :    4.0;   43 :    5.0;   44 :    6.0;   58 :    7.0;   71 :    5.0;   137 :    5.0;   97 :    6.0;   99 :    4.0;   100 :    6.0;   107 :    6.0;   142 :    5.0;
Origin  26
   9 :    12.0;   31 :    16.0;   34 :    8.0;   47 :    7.0;   58 :    3.0;   137 :    7.0;   101 :    6.0;   134 :    9.0;
Origin  27
   136 :    4.0;   1 :    7.0;   11 :    9.0;   21 :    7.0;   25 :    16.0;   34 :    6.0;   51 :    7.0;   58 :    2.0;   80 :    7.0;   83 :    7.0;   95 :    7.0;   98 :    7.0;   110 :    8.0;   113 :    7.0;   124 :    7.0;   135 :    6.0;
Origin  28
   10 :    10.0;   61 :    5.0;   110 :    7.0;
Origin  29
   5 :    7.0;   7 :    6.0;   26 :    5.0;   34 :    7.0;   51 :    7.0;   63 :    7.0;
Origin  30
   136 :    17.0;   1 :    42.0;   2 :    55.0;   3 :    29.0;   4 :    12.0;   5 :    30.0;   6 :    11.0;   7 :    6.0;   8 :    36.0;   10 :    8.0;   11 :    8.0;   13 :    7.0;   16 :    7.0;   17 :    25.0;   20 :    18.0;   21 :    6.0;   23 :    14.0;   24 :    45.0;   25 :    12.0;   26 :    156.0;   27 :    19.0;   28 :    60.0;   29 :    286.0;   32 :    11.0;   34 :    17.0;   37 :    17.0;   43 :    11.0;   46 :    4.0;   48 :    6.0;   49 :    4.0;   51 :    25.0;   54 :    18.0;   57 :    30.0;   58 :    84.0;   64 :    6.0;   71 :    5.0;   75 :    6.0;   79 :    6.0;   80 :    13.0;   81 :    5.0;   82 :    6.0;   83 :    11.0;   137 :    19.0;   90 :    5.0;   93 :    5.0;   94 :    5.0;   95 :    31.0;   96 :    12.0;   97 :    32.0;   98 :    18.0;   99 :    6.0;   100 :    26.0;   101 :    43.0;   139 :    11.0;   102 :    5.0;   103 :    25.0;   108 :    20.0;   110 :    32.0;   111 :    6.0;   113 :    32.0;   115 :    6.0;   116 :    6.0;   120 :    6.0;   125 :    5.0;   128 :    5.0;   134 :    6.0;   135 :    47.0;
Origin  31
   7 :    5.0;   8 :    4.0;   21 :    6.0;   26 :    6.0;   29 :    12.0;   46 :    4.0;   57 :    6.0;   83 :    6.0;   100 :    6.0;   101 :    4.0;   110 :    6.0;   134 :    5.0;   135 :    6.0;
Origin  32
   136 :    15.0;   1 :    7.0;   3 :    15.0;   5 :    14.0;   6 :    6.0;   7 :    1.0;   8 :    22.0;   11 :    11.0;   21 :    15.0;   22 :    14.0;   26 :    57.0;   29 :    29.0;   30 :    15.0;   34 :    15.0;   35 :    8.0;   42 :    7.0;   43 :    7.0;   44 :    8.0;   46 :    13.0;   47 :    7.0;   48 :    7.0;   51 :    34.0;   54 :    6.0;   58 :    23.0;   73 :    7.0;   80 :    15.0;   86 :    7.0;   90 :    8.0;   94 :    7.0;   95 :    7.0;   97 :    14.0;   100 :    36.0;   101 :    15.0;   139 :    13.0;   102 :    15.0;   103 :    6.0;   104 :    7.0;   109 :    7.0;   110 :    16.0;   113 :    9.0;   123 :    7.0;   125 :    5.0;
Origin  33
   1 :    6.0;   2 :    20.0;   3 :    7.0;   5 :    7.0;   7 :    2.0;   8 :    8.0;   17 :    10.0;   22 :    12.0;   24 :    7.0;   26 :    7.0;   29 :    14.0;   30 :    7.0;   32 :    7.0;   34 :    14.0;   46 :    7.0;   50 :    7.0;   51 :    7.0;   54 :    13.0;   57 :    6.0;   58 :    41.0;   59 :    7.0;   80 :    13.0;   83 :    7.0;   137 :    6.0;   84 :    14.0;   89 :    7.0;   95 :    7.0;   97 :    13.0;   99 :    8.0;   100 :    13.0;   101 :    6.0;   102 :    6.0;   104 :    7.0;   135 :    6.0;
Origin  34
   136 :    5.0;   3 :    5.0;   6 :    6.0;   8 :    6.0;   10 :    9.0;   18 :    9.0;   22 :    18.0;   24 :    7.0;   25 :    5.0;   27 :    6.0;   30 :    5.0;   32 :    18.0;   46 :    5.0;   51 :    6.0;   58 :    15.0;   85 :    53.0;   97 :    7.0;   99 :    5.0;   100 :    6.0;   101 :    2.0;   139 :    5.0;   121 :    4.0;
Origin  35
   136 :    6.0;   1 :    19.0;   2 :    12.0;   3 :    19.0;   5 :    19.0;   6 :    12.0;   7 :    9.0;   8 :    5.0;   10 :    9.0;   15 :    8.0;   22 :    13.0;   23 :    6.0;   24 :    5.0;   26 :    18.0;   29 :    24.0;   30 :    12.0;   32 :    6.0;   34 :    25.0;   37 :    6.0;   47 :    6.0;   49 :    5.0;   51 :    24.0;   56 :    6.0;   57 :    13.0;   58 :    35.0;   60 :    5.0;   61 :    4.0;   69 :    5.0;   75 :    7.0;   79 :    5.0;   81 :    5.0;   83 :    6.0;   84 :    5.0;   85 :    5.0;   90 :    6.0;   93 :    6.0;   94 :    6.0;   95 :    6.0;   97 :    6.0;   98 :    12.0;   99 :    7.0;   100 :    37.0;   101 :    16.0;   139 :    12.0;   102 :    12.0;   108 :    7.0;   110 :    28.0;   129 :    7.0;   135 :    25.0;
Origin  36
   3 :    5.0;   5 :    4.0;   7 :    5.0;   21 :    5.0;   25 :    5.0;   58 :    5.0;   83 :    5.0;   84 :    5.0;   94 :    5.0;   95 :    4.0;   97 :    10.0;   100 :    6.0;   105 :    4.0;   110 :    6.0;   113 :    6.0;
Origin  37
   136 :    19.0;   1 :    79.0;   2 :    53.0;   3 :    67.0;   4 :    14.0;   5 :    14.0;   6 :    5.0;   7 :    46.0;   8 :    33.0;   10 :    38.0;   11 :    28.0;   12 :    9.0;   13 :    9.0;   15 :    9.0;   18 :    9.0;   21 :    34.0;   22 :    5.0;   23 :    34.0;   24 :    19.0;   25 :    54.0;   26 :    86.0;   27 :    6.0;   28 :    14.0;   29 :    34.0;   30 :    34.0;   32 :    34.0;   34 :    101.0;   35 :    20.0;   38 :    6.0;   40 :    7.0;   41 :    6.0;   43 :    19.0;   44 :    20.0;   46 :    12.0;   48 :    19.0;   50 :    7.0;   51 :    52.0;   53 :    12.0;   54 :    58.0;   57 :    44.0;   58 :    136.0;   60 :    13.0;   61 :    14.0;   65 :    6.0;   68 :    6.0;   71 :    6.0;   73 :    5.0;   79 :    25.0;   80 :    27.0;   81 :    25.0;   83 :    54.0;   137 :    21.0;   84 :    6.0;   85 :    13.0;   88 :    6.0;   89 :    13.0;   92 :    5.0;   93 :    12.0;   94 :    14.0;   95 :    45.0;   96 :    5.0;   97 :    34.0;   98 :    20.0;   99 :    12.0;   100 :    86.0;   101 :    14.0;   103 :    14.0;   104 :    7.0;   105 :    15.0;   109 :    6.0;   110 :    29.0;   113 :    7.0;   122 :    13.0;   124 :    7.0;   125 :    11.0;   135 :    53.0;
Origin  38
   136 :    14.0;   1 :    26.0;   2 :    15.0;   3 :    7.0;   4 :    9.0;   5 :    14.0;   6 :    4.0;   7 :    9.0;   8 :    15.0;   10 :    8.0;   22 :    9.0;   23 :    4.0;   25 :    4.0;   26 :    10.0;   28 :    5.0;   29 :    19.0;   34 :    10.0;   37 :    5.0;   39 :    5.0;   40 :    5.0;   41 :    4.0;   43 :    5.0;   44 :    4.0;   46 :    4.0;   48 :    9.0;   51 :    5.0;   54 :    34.0;   57 :    9.0;   58 :    14.0;   61 :    4.0;   64 :    5.0;   66 :    4.0;   69 :    4.0;   79 :    5.0;   80 :    5.0;   81 :    5.0;   82 :    5.0;   83 :    10.0;   137 :    8.0;   85 :    5.0;   86 :    5.0;   93 :    4.0;   95 :    5.0;   97 :    6.0;   100 :    29.0;   139 :    8.0;   104 :    6.0;   106 :    5.0;   108 :    5.0;   110 :    6.0;   113 :    11.0;   125 :    8.0;   127 :    3.0;   135 :    14.0;
Origin  39
   136 :    10.0;   1 :    11.0;   2 :    12.0;   3 :    16.0;   4 :    9.0;   5 :    9.0;   6 :    4.0;   21 :    5.0;   22 :    5.0;   23 :    10.0;   24 :    6.0;   26 :    16.0;   27 :    5.0;   29 :    22.0;   30 :    4.0;   32 :    4.0;   34 :    12.0;   35 :    5.0;   37 :    34.0;   38 :    6.0;   42 :    5.0;   43 :    5.0;   44 :    5.0;   47 :    5.0;   48 :    11.0;   51 :    16.0;   53 :    11.0;   54 :    12.0;   57 :    4.0;   58 :    17.0;   61 :    3.0;   64 :    5.0;   71 :    5.0;   73 :    5.0;   80 :    5.0;   82 :    5.0;   83 :    6.0;   137 :    5.0;   89 :    5.0;   95 :    11.0;   97 :    5.0;   100 :    34.0;   101 :    13.0;   105 :    5.0;   110 :    6.0;   111 :    6.0;   122 :    4.0;   131 :    5.0;   132 :    5.0;   135 :    12.0;
Origin  40
   136 :    9.0;   1 :    5.0;   2 :    5.0;   3 :    13.0;   4 :    6.0;   5 :    13.0;   6 :    11.0;   8 :    7.0;   21 :    7.0;   23 :    5.0;   25 :    6.0;   26 :    24.0;   28 :    6.0;   29 :    5.0;   32 :    7.0;   34 :    12.0;   37 :    7.0;   41 :    5.0;   43 :    5.0;   46 :    5.0;   47 :    5.0;   48 :    6.0;   54 :    12.0;   57 :    13.0;   58 :    13.0;   80 :    18.0;   83 :    13.0;   137 :    17.0;   86 :    18.0;   94 :    7.0;   97 :    6.0;   98 :    6.0;   99 :    7.0;   100 :    17.0;   101 :    10.0;   139 :    17.0;   103 :    5.0;   146 :    6.0;
Origin  41
   136 :    31.0;   1 :    31.0;   2 :    10.0;   3 :    16.0;   4 :    10.0;   5 :    37.0;   6 :    4.0;   7 :    30.0;   8 :    10.0;   13 :    4.0;   18 :    7.0;   21 :    11.0;   23 :    4.0;   24 :    5.0;   25 :    5.0;   26 :    21.0;   29 :    4.0;   30 :    27.0;   34 :    11.0;   36 :    3.0;   37 :    11.0;   38 :    4.0;   40 :    5.0;   43 :    10.0;   45 :    5.0;   46 :    9.0;   47 :    4.0;   48 :    15.0;   51 :    16.0;   53 :    5.0;   54 :    25.0;   57 :    10.0;   58 :    41.0;   60 :    4.0;   61 :    9.0;   62 :    5.0;   64 :    5.0;   65 :    4.0;   66 :    15.0;   67 :    5.0;   71 :    4.0;   73 :    6.0;   75 :    4.0;   79 :    5.0;   80 :    6.0;   81 :    4.0;   82 :    5.0;   83 :    10.0;   137 :    10.0;   91 :    4.0;   92 :    4.0;   93 :    3.0;   94 :    6.0;   95 :    5.0;   96 :    16.0;   97 :    15.0;   98 :    6.0;   100 :    21.0;   101 :    20.0;   139 :    14.0;   104 :    6.0;   105 :    6.0;   106 :    4.0;   107 :    6.0;   108 :    12.0;   110 :    6.0;   134 :    5.0;   135 :    11.0;
Origin  42
   136 :    18.0;   1 :    5.0;   2 :    13.0;   3 :    13.0;   5 :    6.0;   6 :    5.0;   10 :    9.0;   11 :    27.0;   13 :    8.0;   16 :    9.0;   21 :    13.0;   24 :    11.0;   26 :    26.0;   27 :    6.0;   29 :    6.0;   32 :    18.0;   34 :    13.0;   37 :    6.0;   39 :    7.0;   40 :    6.0;   41 :    5.0;   44 :    13.0;   46 :    9.0;   47 :    17.0;   48 :    5.0;   49 :    5.0;   51 :    13.0;   54 :    24.0;   57 :    19.0;   58 :    16.0;   60 :    6.0;   61 :    3.0;   65 :    6.0;   66 :    5.0;   81 :    5.0;   83 :    26.0;   137 :    18.0;   89 :    13.0;   91 :    6.0;   95 :    36.0;   96 :    6.0;   97 :    5.0;   100 :    31.0;   101 :    8.0;   139 :    18.0;   104 :    7.0;   106 :    7.0;   107 :    6.0;   109 :    6.0;   110 :    7.0;   115 :    7.0;   125 :    5.0;   135 :    30.0;
Origin  43
   136 :    47.0;   1 :    23.0;   2 :    30.0;   3 :    40.0;   4 :    12.0;   5 :    22.0;   6 :    22.0;   7 :    34.0;   8 :    7.0;   11 :    9.0;   16 :    9.0;   20 :    9.0;   21 :    24.0;   22 :    10.0;   23 :    11.0;   24 :    11.0;   25 :    18.0;   26 :    57.0;   29 :    6.0;   30 :    12.0;   34 :    23.0;   35 :    6.0;   37 :    12.0;   38 :    5.0;   40 :    7.0;   41 :    10.0;   42 :    6.0;   44 :    23.0;   46 :    16.0;   48 :    10.0;   49 :    5.0;   51 :    29.0;   53 :    21.0;   54 :    51.0;   56 :    6.0;   57 :    12.0;   58 :    93.0;   62 :    6.0;   63 :    6.0;   64 :    6.0;   71 :    5.0;   80 :    17.0;   81 :    12.0;   83 :    29.0;   137 :    24.0;   85 :    6.0;   86 :    18.0;   89 :    11.0;   90 :    7.0;   91 :    5.0;   93 :    5.0;   94 :    12.0;   95 :    10.0;   97 :    7.0;   98 :    6.0;   100 :    23.0;   101 :    17.0;   139 :    5.0;   102 :    6.0;   105 :    13.0;   110 :    7.0;   113 :    7.0;   146 :    7.0;   125 :    4.0;   129 :    12.0;   134 :    6.0;   135 :    18.0;
Origin  44
   136 :    22.0;   1 :    10.0;   2 :    37.0;   3 :    43.0;   4 :    10.0;   5 :    17.0;   6 :    4.0;   7 :    3.0;   8 :    11.0;   9 :    14.0;   10 :    8.0;   11 :    7.0;   20 :    8.0;   21 :    5.0;   22 :    10.0;   23 :    11.0;   24 :    26.0;   25 :    11.0;   26 :    33.0;   29 :    22.0;   30 :    5.0;   32 :    11.0;   34 :    10.0;   37 :    28.0;   38 :    5.0;   39 :    5.0;   42 :    11.0;   43 :    4.0;   46 :    4.0;   48 :    4.0;   51 :    5.0;   54 :    10.0;   57 :    11.0;   58 :    40.0;   59 :    5.0;   61 :    3.0;   62 :    5.0;   66 :    10.0;   71 :    4.0;   73 :    5.0;   76 :    5.0;   80 :    22.0;   81 :    10.0;   83 :    16.0;   137 :    10.0;   84 :    5.0;   88 :    10.0;   92 :    6.0;   93 :    8.0;   95 :    42.0;   96 :    4.0;   98 :    6.0;   100 :    22.0;   101 :    13.0;   139 :    6.0;   103 :    6.0;   104 :    5.0;   109 :    18.0;   110 :    6.0;   121 :    4.0;   125 :    4.0;   135 :    28.0;
Origin  45
   136 :    14.0;   1 :    16.0;   2 :    12.0;   3 :    16.0;   4 :    12.0;   5 :    16.0;   6 :    12.0;   21 :    16.0;   26 :    15.0;   32 :    30.0;   33 :    15.0;   34 :    16.0;   36 :    14.0;   37 :    16.0;   40 :    16.0;   46 :    14.0;   57 :    45.0;   69 :    16.0;   72 :    15.0;   80 :    15.0;   83 :    13.0;   95 :    12.0;   100 :    15.0;   101 :    16.0;   103 :    17.0;   108 :    17.0;   109 :    17.0;   135 :    16.0;
Origin  46
   136 :    20.0;   1 :    51.0;   2 :    52.0;   3 :    73.0;   4 :    30.0;   5 :    20.0;   6 :    9.0;   7 :    20.0;   8 :    21.0;   9 :    21.0;   10 :    10.0;   12 :    11.0;   15 :    10.0;   17 :    10.0;   23 :    17.0;   24 :    7.0;   26 :    7.0;   30 :    7.0;   34 :    9.0;   35 :    9.0;   41 :    8.0;   47 :    8.0;   49 :    14.0;   51 :    16.0;   53 :    8.0;   54 :    41.0;   57 :    49.0;   58 :    129.0;   62 :    7.0;   66 :    8.0;   70 :    9.0;   71 :    25.0;   72 :    6.0;   75 :    18.0;   76 :    8.0;   79 :    36.0;   80 :    7.0;   81 :    18.0;   83 :    28.0;   137 :    36.0;   84 :    18.0;   85 :    18.0;   95 :    8.0;   96 :    17.0;   97 :    27.0;   98 :    44.0;   99 :    16.0;   100 :    62.0;   101 :    81.0;   139 :    17.0;   104 :    31.0;   108 :    11.0;   110 :    21.0;   116 :    11.0;   120 :    10.0;   129 :    28.0;   132 :    7.0;   135 :    19.0;
Origin  47
   1 :    8.0;   3 :    16.0;   4 :    15.0;   5 :    7.0;   6 :    5.0;   7 :    7.0;   9 :    8.0;   26 :    7.0;   30 :    13.0;   32 :    7.0;   46 :    12.0;   48 :    6.0;   54 :    6.0;   57 :    12.0;   58 :    11.0;   66 :    6.0;   69 :    7.0;   71 :    5.0;   79 :    6.0;   83 :    7.0;   86 :    6.0;   94 :    34.0;   95 :    12.0;   96 :    6.0;   98 :    7.0;   100 :    13.0;   101 :    12.0;   139 :    12.0;   102 :    7.0;   104 :    7.0;   135 :    7.0;
Origin  48
   136 :    8.0;   1 :    9.0;   2 :    6.0;   3 :    5.0;   6 :    6.0;   26 :    8.0;   29 :    14.0;   49 :    10.0;   51 :    7.0;   54 :    13.0;   57 :    8.0;   58 :    37.0;   60 :    6.0;   66 :    6.0;   71 :    7.0;   72 :    7.0;   78 :    7.0;   79 :    8.0;   80 :    8.0;   81 :    6.0;   83 :    6.0;   85 :    8.0;   87 :    8.0;   95 :    6.0;   98 :    8.0;   99 :    8.0;   100 :    14.0;   101 :    7.0;   103 :    9.0;   104 :    6.0;   109 :    8.0;   110 :    10.0;   142 :    8.0;
Origin  49
   136 :    29.0;   1 :    6.0;   2 :    14.0;   3 :    34.0;   4 :    35.0;   5 :    19.0;   7 :    15.0;   10 :    7.0;   18 :    6.0;   30 :    12.0;   31 :    23.0;   32 :    5.0;   37 :    5.0;   38 :    4.0;   43 :    12.0;   46 :    10.0;   51 :    11.0;   52 :    5.0;   53 :    6.0;   57 :    11.0;   58 :    37.0;   62 :    5.0;   66 :    12.0;   69 :    6.0;   70 :    5.0;   80 :    26.0;   81 :    12.0;   82 :    6.0;   83 :    12.0;   137 :    5.0;   86 :    6.0;   93 :    3.0;   94 :    6.0;   95 :    4.0;   97 :    11.0;   100 :    48.0;   101 :    11.0;   107 :    7.0;   108 :    6.0;   110 :    14.0;   113 :    7.0;   116 :    7.0;   146 :    12.0;   123 :    5.0;   135 :    28.0;
Origin  50
   136 :    16.0;   1 :    15.0;   2 :    7.0;   3 :    38.0;   7 :    11.0;   8 :    15.0;   23 :    6.0;   26 :    13.0;   31 :    7.0;   32 :    7.0;   33 :    6.0;   34 :    6.0;   48 :    5.0;   51 :    47.0;   54 :    6.0;   57 :    17.0;   58 :    35.0;   66 :    19.0;   76 :    7.0;   79 :    7.0;   80 :    7.0;   81 :    6.0;   83 :    26.0;   137 :    14.0;   86 :    7.0;   94 :    13.0;   97 :    13.0;   100 :    32.0;   101 :    37.0;   139 :    6.0;   103 :    8.0;   104 :    7.0;   105 :    8.0;   110 :    8.0;   120 :    8.0;   129 :    7.0;   135 :    5.0;
Origin  51
   136 :    7.0;   1 :    22.0;   2 :    21.0;   3 :    38.0;   4 :    7.0;   5 :    22.0;   8 :    8.0;   10 :    8.0;   13 :    16.0;   18 :    15.0;   21 :    6.0;   26 :    37.0;   28 :    7.0;   29 :    13.0;   30 :    6.0;   32 :    5.0;   34 :    13.0;   46 :    12.0;   48 :    5.0;   49 :    4.0;   53 :    6.0;   54 :    53.0;   57 :    34.0;   58 :    50.0;   61 :    5.0;   63 :    6.0;   66 :    12.0;   67 :    7.0;   73 :    13.0;   80 :    13.0;   83 :    14.0;   137 :    33.0;   85 :    7.0;   87 :    14.0;   89 :    7.0;   93 :    5.0;   94 :    13.0;   95 :    6.0;   96 :    7.0;   97 :    18.0;   98 :    13.0;   99 :    12.0;   100 :    57.0;   101 :    37.0;   139 :    6.0;   104 :    15.0;   105 :    23.0;   109 :    7.0;   110 :    23.0;   113 :    8.0;   135 :    22.0;
Origin  52