<NUMBER OF ZONES> 2										
<NUMBER OF NODES> 4										
<FIRST THRU NODE> 1											
<NUMBER OF LINKS> 5										
<END OF METADATA>											


~ 	Init node 	Term node 	Capacity 	Length 	Free Flow Time 	B	Power	Speed limit 	Toll 	Type	;
	1	4	3000	25	15	0.15	4	0	0	1	;
	1	3	5000	10	5	0.15	4	0	0	1	;
	2	4	3000	30	20	0.15	4	0	0	1	;
	2	3	5000	15	10	0.15	4	0	0	1	;
	3	4	7200	25	10	0.15	4	0	0	1	;
