<NUMBER OF ZONES> 2
<TOTAL OD FLOW> 16000.0
<END OF METADATA>


Origin 	1 
   4 :    4000.0;
Origin 	2 
   4 :    4000.0;
